
     RDKit          3D

 13 13  0  0  0  0  0  0  0  0999 V2000
   58.8700   17.4470   12.4360 C   0  0  2  0  0  0  0  0  0  0  0  0
   58.7820   17.2570   13.9310 C   0  0  2  0  0  0  0  0  0  0  0  0
   59.8000   16.6410   14.6170 C   0  0  0  0  0  0  0  0  0  0  0  0
   59.6700   16.4360   15.9830 C   0  0  0  0  0  0  0  0  0  0  0  0
   57.5950   17.4260   16.0030 C   0  0  2  0  0  0  0  0  0  0  0  0
   56.3690   17.8330   16.7850 C   0  0  0  0  0  0  0  0  0  0  0  0
   57.6430   17.6510   14.6040 C   0  0  0  0  0  0  0  0  0  0  0  0
   56.6660   18.2290   13.9310 F   0  0  0  0  0  0  0  0  0  0  0  0
   58.6170   16.7940   16.6380 N   0  0  0  0  0  0  0  0  0  0  0  0
   58.6690   18.5550   11.8350 O   0  0  0  0  0  0  0  0  0  0  0  0
   59.0520   16.3930   11.8100 O   0  0  0  0  0  0  0  0  0  0  0  0
   55.3200   18.3330   16.2140 O   0  0  0  0  0  0  0  0  0  0  0  0
   56.3440   17.7520   18.0220 O   0  0  0  0  0  0  0  0  0  0  0  0
  2  1  1  0
  2  3  1  6
  4  3  1  0
  5  6  1  6
  7  5  1  0
  7  2  1  0
  8  7  1  0
  9  5  1  0
  9  4  1  0
  1 10  1  6
 11  1  1  0
 12  6  1  0
 13  6  1  0
M  CHG  2  11  -1  13  -1
M  END
$$$$
